
     RDKit          3D

 39 45  0  0  0  0  0  0  0  0999 V2000
    0.7860  -10.4150   12.4030 C   0  0  1  0  0  0  0  0  0  0  0  0
    2.1120  -10.9590   11.8290 C   0  0  0  0  0  0  0  0  0  0  0  0
    2.3290  -10.3240   10.5520 N   0  0  0  0  0  0  0  0  0  0  0  0
    1.2430  -10.4360    9.6180 C   0  0  0  0  0  0  0  0  0  0  0  0
   -0.0620   -9.9590   10.3470 C   0  0  2  0  0  0  0  0  0  0  0  0
    0.1190   -8.5950   10.9700 C   0  0  0  0  0  0  0  0  0  0  0  0
    0.7040   -8.8920   12.3390 C   0  0  0  0  0  0  0  0  0  0  0  0
   -0.2450  -10.8270   11.5030 N   0  0  0  0  0  0  0  0  0  0  0  0
    3.4100   -9.4660   10.3850 C   0  0  0  0  0  0  0  0  0  0  0  0
    3.9310   -8.9570   11.5110 N   0  0  0  0  0  0  0  0  0  0  0  0
    4.9140   -8.0490   11.4810 C   0  0  0  0  0  0  0  0  0  0  0  0
    5.4810   -7.6510   10.3670 N   0  0  0  0  0  0  0  0  0  0  0  0
    5.0170   -8.1410    9.1760 C   0  0  0  0  0  0  0  0  0  0  0  0
    5.6120   -7.7080    7.9770 C   0  0  0  0  0  0  0  0  0  0  0  0
    5.1930   -8.1960    6.7420 C   0  0  0  0  0  0  0  0  0  0  0  0
    4.1510   -9.1150    6.7140 C   0  0  0  0  0  0  0  0  0  0  0  0
    3.5490   -9.5650    7.8880 C   0  0  0  0  0  0  0  0  0  0  0  0
    3.9610   -9.0800    9.1320 C   0  0  0  0  0  0  0  0  0  0  0  0
    3.6170   -9.7060    5.3310 Cl  0  0  0  0  0  0  0  0  0  0  0  0
    5.8670   -7.7170    5.5220 C   0  0  0  0  0  0  0  0  0  0  0  0
    6.9390   -8.4240    4.9670 C   0  0  0  0  0  0  0  0  0  0  0  0
    7.5720   -7.9280    3.8340 C   0  0  0  0  0  0  0  0  0  0  0  0
    7.1540   -6.7370    3.2610 C   0  0  0  0  0  0  0  0  0  0  0  0
    6.0960   -6.0290    3.8170 C   0  0  0  0  0  0  0  0  0  0  0  0
    5.4630   -6.5240    4.9400 C   0  0  0  0  0  0  0  0  0  0  0  0
    4.4360   -5.8610    5.4600 F   0  0  0  0  0  0  0  0  0  0  0  0
    7.3370   -9.5820    5.5060 O   0  0  0  0  0  0  0  0  0  0  0  0
    6.5910   -6.8280    8.0330 F   0  0  0  0  0  0  0  0  0  0  0  0
    5.3580   -7.5090   12.6570 O   0  0  0  0  0  0  0  0  0  0  0  0
    4.6170   -7.7760   13.8230 C   0  0  0  0  0  0  0  0  0  0  0  0
    5.1050   -6.8440   14.9330 C   0  0  1  0  0  0  0  0  0  0  0  0
    4.6110   -7.2930   16.2800 C   0  0  0  0  0  0  0  0  0  0  0  0
    5.7620   -7.9190   16.9620 C   0  0  0  0  0  0  0  0  0  0  0  0
    6.9410   -7.2140   16.3990 C   0  0  0  0  0  0  0  0  0  0  0  0
    6.5740   -6.8540   15.0390 N   0  0  0  0  0  0  0  0  0  0  0  0
    7.0370   -5.5250   14.7070 C   0  0  0  0  0  0  0  0  0  0  0  0
    5.8850   -4.6200   15.0340 C   0  0  2  0  0  0  0  0  0  0  0  0
    4.6930   -5.4070   14.6850 C   0  0  0  0  0  0  0  0  0  0  0  0
    5.9630   -3.4570   14.2890 F   0  0  0  0  0  0  0  0  0  0  0  0
  1  2  1  6
  3  2  1  0
  4  3  1  0
  5  4  1  1
  6  5  1  0
  7  6  1  0
  7  1  1  0
  8  5  1  0
  8  1  1  0
  9  3  1  0
 10  9  1  0
 11 10  1  0
 12 11  1  0
 13 12  1  0
 14 13  1  0
 15 14  1  0
 16 15  1  0
 17 16  1  0
 18 17  1  0
 18 13  1  0
 18  9  1  0
 19 16  1  0
 20 15  1  0
 21 20  1  0
 22 21  1  0
 23 22  1  0
 24 23  1  0
 25 24  1  0
 25 20  1  0
 26 25  1  0
 27 21  1  0
 28 14  1  0
 29 11  1  0
 30 29  1  0
 31 30  1  6
 32 31  1  0
 33 32  1  0
 34 33  1  0
 35 31  1  0
 35 34  1  0
 36 35  1  0
 37 36  1  0
 38 31  1  0
 38 37  1  0
 37 39  1  6
M  END
$$$$
