
     RDKit          3D

 41 48  0  0  0  0  0  0  0  0999 V2000
    0.2070  -11.9000   10.9610 C   0  0  1  0  0  0  0  0  0  0  0  0
    1.4070  -12.6880   10.3780 C   0  0  0  0  0  0  0  0  0  0  0  0
    1.6570  -12.2170    9.0500 N   0  0  0  0  0  0  0  0  0  0  0  0
    0.5350  -12.1330    8.1460 C   0  0  0  0  0  0  0  0  0  0  0  0
   -0.6310  -11.3970    8.9010 C   0  0  2  0  0  0  0  0  0  0  0  0
   -0.1890  -10.0560    9.4500 C   0  0  0  0  0  0  0  0  0  0  0  0
    0.3790  -10.3840   10.8230 C   0  0  0  0  0  0  0  0  0  0  0  0
   -0.9140  -12.1680   10.1060 N   0  0  0  0  0  0  0  0  0  0  0  0
    2.8640  -11.6250    8.7460 C   0  0  0  0  0  0  0  0  0  0  0  0
    3.4960  -11.0510    9.7700 N   0  0  0  0  0  0  0  0  0  0  0  0
    4.6360  -10.3500    9.5950 C   0  0  0  0  0  0  0  0  0  0  0  0
    5.2110  -10.2330    8.4270 N   0  0  0  0  0  0  0  0  0  0  0  0
    4.6410  -10.8460    7.3290 C   0  0  0  0  0  0  0  0  0  0  0  0
    5.2710  -10.7550    6.0800 C   0  0  0  0  0  0  0  0  0  0  0  0
    4.7240  -11.3840    4.9500 C   0  0  0  0  0  0  0  0  0  0  0  0
    3.5540  -12.1170    5.0980 C   0  0  0  0  0  0  0  0  0  0  0  0
    2.9280  -12.2260    6.3150 C   0  0  0  0  0  0  0  0  0  0  0  0
    3.4460  -11.5830    7.4550 C   0  0  0  0  0  0  0  0  0  0  0  0
    5.3850  -11.2840    3.6450 C   0  0  2  0  0  0  0  0  0  0  0  0
    5.9490  -12.4400    3.1520 C   0  0  0  0  0  0  0  0  0  0  0  0
    6.7310  -12.4330    1.9950 C   0  0  0  0  0  0  0  0  0  0  0  0
    6.9760  -11.2420    1.3320 C   0  0  0  0  0  0  0  0  0  0  0  0
    6.3790  -10.0430    1.7940 C   0  0  0  0  0  0  0  0  0  0  0  0
    6.6090   -8.8310    1.1080 C   0  0  0  0  0  0  0  0  0  0  0  0
    6.0340   -7.6660    1.5050 C   0  0  0  0  0  0  0  0  0  0  0  0
    5.2070   -7.6670    2.6010 C   0  0  0  0  0  0  0  0  0  0  0  0
    4.9410   -8.8210    3.2930 C   0  0  2  0  0  0  0  0  0  0  0  0
    5.5430  -10.0460    2.9450 C   0  0  0  0  0  0  0  0  0  0  0  0
    3.8370   -8.6080    4.4250 Cl  0  0  0  0  0  0  0  0  0  0  0  0
    7.2350  -13.5910    1.5390 O   0  0  0  0  0  0  0  0  0  0  0  0
    6.3710  -10.0530    5.9890 F   0  0  0  0  0  0  0  0  0  0  0  0
    5.2180   -9.7520   10.6650 O   0  0  0  0  0  0  0  0  0  0  0  0
    4.6060   -9.8720   11.9170 C   0  0  0  0  0  0  0  0  0  0  0  0
    5.6030   -9.3910   12.9750 C   0  0  1  0  0  0  0  0  0  0  0  0
    5.0490   -9.6460   14.3510 C   0  0  0  0  0  0  0  0  0  0  0  0
    5.7420  -10.8670   14.8350 C   0  0  0  0  0  0  0  0  0  0  0  0
    7.1050  -10.7050   14.2520 C   0  0  0  0  0  0  0  0  0  0  0  0
    6.8700  -10.1190   12.9340 N   0  0  0  0  0  0  0  0  0  0  0  0
    7.9290   -9.1470   12.6180 C   0  0  0  0  0  0  0  0  0  0  0  0
    7.3840   -7.8260   13.0820 C   0  0  0  0  0  0  0  0  0  0  0  0
    5.9440   -7.9290   12.7810 C   0  0  0  0  0  0  0  0  0  0  0  0
  1  2  1  6
  3  2  1  0
  4  3  1  0
  5  4  1  1
  6  5  1  0
  7  1  1  0
  7  6  1  0
  8  5  1  0
  8  1  1  0
  9  3  1  0
 10  9  1  0
 11 10  1  0
 12 11  1  0
 13 12  1  0
 14 13  1  0
 15 14  1  0
 16 15  1  0
 17 16  1  0
 18 17  1  0
 18  9  1  0
 18 13  1  0
 19 15  1  1
 20 19  1  0
 21 20  1  0
 22 21  1  0
 23 22  1  0
 24 23  1  0
 25 24  1  0
 26 25  1  0
 27 26  1  0
 28 19  1  0
 28 27  1  0
 28 23  1  0
 27 29  1  6
 30 21  1  0
 31 14  1  0
 32 11  1  0
 33 32  1  0
 34 33  1  6
 35 34  1  0
 36 35  1  0
 37 36  1  0
 38 37  1  0
 38 34  1  0
 39 38  1  0
 40 39  1  0
 41 40  1  0
 41 34  1  0
M  END
$$$$
