
     RDKit          3D

 32 34  0  0  0  0  0  0  0  0999 V2000
   29.6202    3.6409   59.1333 N   0  0  0  0  0  4  0  0  0  0  0  0
   26.4755    4.5964   58.0637 C   0  0  0  0  0  0  0  0  0  0  0  0
   24.1548    6.8198   56.4030 C   0  0  0  0  0  0  0  0  0  0  0  0
   25.7251    5.0128   56.9840 N   0  0  0  0  0  4  0  0  0  0  0  0
   22.8221    7.2686   56.3811 C   0  0  0  0  0  0  0  0  0  0  0  0
   27.1812    3.1480   59.6559 C   0  0  0  0  0  0  0  0  0  0  0  0
   24.7541    3.2070   59.4500 C   0  0  0  0  0  0  0  0  0  0  0  0
   26.0356    3.6854   59.1057 C   0  0  0  0  0  0  0  0  0  0  0  0
   24.4320    5.6415   57.1173 N   0  0  0  0  0  0  0  0  0  0  0  0
   24.6643    2.1548   60.3818 C   0  0  0  0  0  0  0  0  0  0  0  0
   25.8378    1.5850   60.9243 C   0  0  0  0  0  0  0  0  0  0  0  0
   27.1146    2.0716   60.5561 C   0  0  0  0  0  0  0  0  0  0  0  0
   27.8636    4.6731   58.0357 N   0  0  0  0  0  0  0  0  0  0  0  0
   28.2920    3.7745   58.9619 C   0  0  0  0  0  0  0  0  0  0  0  0
   22.4460    8.4176   55.6736 C   0  0  0  0  0  0  0  0  0  0  0  0
   23.4032    9.1173   54.9309 C   0  0  0  0  0  0  0  0  0  0  0  0
   24.7329    8.6736   54.9233 C   0  0  0  0  0  0  0  0  0  0  0  0
   25.1217    7.5498   55.6777 C   0  0  0  0  0  0  0  0  0  0  0  0
   29.9161    2.9136   59.7967 H   0  0  0  0  0  0  0  0  0  0  0  0
   30.2287    3.5502   58.3049 H   0  0  0  0  0  0  0  0  0  0  0  0
   26.3197    5.3419   56.2157 H   0  0  0  0  0  0  0  0  0  0  0  0
   22.0547    6.7297   56.9199 H   0  0  0  0  0  0  0  0  0  0  0  0
   23.8456    3.5731   58.9832 H   0  0  0  0  0  0  0  0  0  0  0  0
   23.6615    4.9631   57.0875 H   0  0  0  0  0  0  0  0  0  0  0  0
   23.6880    1.7333   60.6335 H   0  0  0  0  0  0  0  0  0  0  0  0
   25.7473    0.7237   61.5822 H   0  0  0  0  0  0  0  0  0  0  0  0
   28.0106    1.5748   60.9109 H   0  0  0  0  0  0  0  0  0  0  0  0
   28.4692    5.1372   57.3718 H   0  0  0  0  0  0  0  0  0  0  0  0
   21.4090    8.7439   55.6931 H   0  0  0  0  0  0  0  0  0  0  0  0
   23.1114    9.9867   54.3508 H   0  0  0  0  0  0  0  0  0  0  0  0
   25.4560    9.2020   54.3196 H   0  0  0  0  0  0  0  0  0  0  0  0
   26.1653    7.2537   55.6705 H   0  0  0  0  0  0  0  0  0  0  0  0
  1 14  2  0
 14  6  1  0
  6  8  1  0
  8  7  2  0
  7 23  1  0
  7 10  1  0
 10 25  1  0
 10 11  2  0
 11 26  1  0
 11 12  1  0
 12 27  1  0
  8  2  1  0
  2  4  2  0
  4  9  1  0
  9  3  1  0
  3  5  2  0
  5 22  1  0
  5 15  1  0
 15 29  1  0
 15 16  2  0
 16 30  1  0
 16 17  1  0
 17 31  1  0
 17 18  2  0
 18 32  1  0
  9 24  1  0
  4 21  1  0
  2 13  1  0
 13 28  1  0
  1 19  1  0
  1 20  1  0
 13 14  1  0
 12  6  2  0
 18  3  1  0
M  CHG  2   1   1   4   1
M  END
$$$$
